[General]
tkenv-image-path=../../images
tkenv-plugin-path = ../../../inet/etc/plugins
output-scalar-file-append = false
sim-time-limit=20s
**.vector-recording = false

##########################################################
#			Simulation parameters                        #
##########################################################
#record-eventlog = true
#eventlog-options = module, displaystring, message
#eventlog-message-detail-pattern = *:(not declaredOn(cMessage) and not declaredOn(cNamedObject) and not declaredOn(cObject))
tkenv-default-config = 
#debug-on-errors=true
#**.coreDebug = true
 

##########################################################
#			         channel parameters                  #
##########################################################
**.channelControl.pMax = 10W
**.channelControl.alpha = 1.0
**.channelControl.carrierFrequency = 2100e+6Hz

################### RLC parameters #######################
#**.fragmentSize=30B
#**.timeout=50s
################### MAC parameters #######################
**.mac.queueSize = 1MiB
**.mac.maxBytesPerTti = 1KiB
**.mac.macDelay.result-recording-modes = all
**.mac.macThroughput.result-recording-modes = all

# Schedulers
**.mac.schedulingDisciplineDl = "MAXCI"
**.mac.schedulingDisciplineUl = "MAXCI"

################ PhyLayer parameters #####################
**.nic.phy.usePropagationDelay = true
**.nic.phy.channelModel=xmldoc("config_channel.xml")

################ Feedback parameters #####################
**.feedbackComputation = xmldoc("config_channel.xml")

################ Mobility parameters #####################

# *
**.mobility.constraintAreaMinZ = 0m
**.mobility.constraintAreaMaxZ = 0m

**.mobility.initFromDisplayString = true

# UEs
**.enableHandover = false


################# Deployer parameters #######################
# UEs attached to eNB
**.fbDelay = 1

# General
**.deployer.positionUpdateInterval = 0.001s
**.deployer.broadcastMessageInterval = 1s

# RUs
**.deployer.numRus = 0
**.deployer.ruRange = 50
**.deployer.ruTxPower = "50,50,50;"
**.deployer.ruStartingAngle = 0deg
**.deployer.antennaCws = "2;" # !!MACRO + RUS (numRus + 1)

# AMC
**.deployer.numRbDl = 6
**.deployer.numRbUl = 6
**.deployer.numBands = 6

############### AMC MODULE PARAMETERS ###############
**.rbAllocationType = "localized"
**.mac.amcMode = "AUTO"
**.feedbackType = "ALLBANDS"
**.feedbackGeneratorType = "IDEAL"
**.maxHarqRtx = 3
**.pfAlpha = 0.95
**.pfTmsAwareDL = false

############### Transmission Power ##################
**.ueTxPower = 26
**.microTxPower = 20
**.*TxPower = 40


[Config VoIP]
network = lte.simulations.networks.SingleCell

# Schedulers
**.mac.schedulingDisciplineDl = "MAXCI"
**.mac.schedulingDisciplineUl = "MAXCI"

# one UDP application for each user
*.ue[*].numUdpApps = 1

# the amount of UDP applications on server should be equal to (numUEs)*(ue[*].numUdpApps) 
*.server.numUdpApps = 1

# connect each UE to the eNB
**.ue[*].macCellId = 1
**.ue[*].masterId = 1

# positioning and mobility
*.ue[*].mobility.acceleration = 0
*.ue[*].mobility.angle = uniform(0deg, 360deg)
*.ue[*].mobility.constraintAreaMaxX = 1000m
*.ue[*].mobility.constraintAreaMaxY = 1000m
*.ue[*].mobility.constraintAreaMinX = 0m
*.ue[*].mobility.constraintAreaMinY = 0m
*.ue[*].mobility.initFromDisplayString = false
*.ue[*].mobility.initialX = uniform(0m,300m)
*.ue[*].mobility.initialY = uniform(0m,300m)
*.ue[*].mobility.initialZ = 0
*.ue[*].mobility.speed = 1mps
*.ue[*].mobilityType = "LinearMobility"

#============= Application Setup =============
*.ue[*].udpApp[*].typename = "VoIPReceiver"
*.ue[*].udpApp[0].localPort = 3000
*.ue[*].udpApp[0].serverAddress = "server"

*.server.udpApp[*].PacketSize = 40
*.server.udpApp[*].destAddress = "ue["+string(ancestorIndex(0))+"]" # obtain the address of the client by reading its index in the array of udp Apps
*.server.udpApp[*].destAddresses = ""
*.server.udpApp[*].destPort = 3000
*.server.udpApp[*].localPort = 3088+ancestorIndex(0) 
*.server.udpApp[*].typename = "VoIPSender"
*.server.udpApp[*].startTime = uniform(0s,0.02s)
#------------------------------------#



#------------------------------------#
#------ bi-directional traffic ------#
#------------------------------------#
[Config VoIP_DL-UL]
sim-time-limit = 20s
warmup-period = 0s
network = lte.simulations.networks.SingleCell

**.numUe = ${numUEs=25}
result-dir = results/${configname}

**.vector-recording = false

# Schedulers
**.mac.schedulingDisciplineDl = "MAXCI"
**.mac.schedulingDisciplineUl = "MAXCI"

**.rbAllocationType = "localized"
**.ue[*].macCellId = 1
**.ue[*].masterId = 1

*.ue[*].mobility.initFromDisplayString = false
*.ue[*].mobility.initialX = uniform(200m,400m)
*.ue[*].mobility.initialY = uniform(200m,400m)
*.ue[*].mobility.initialZ = 0
*.ue[*].mobility.speed = 0mps
*.ue[*].mobilityType = "LinearMobility"

*.eNodeB.mobility.initFromDisplayString = false
*.eNodeB.mobility.initialX = 300m
*.eNodeB.mobility.initialY = 300m

# one UDP app for DownLink and one for UpLink direction
*.ue[*].numUdpApps = ${directions=2}
*.server.numUdpApps = ${directions} * ${numUEs}

    #---------- UL -----------
*.server.udpApp[0..24].typename = "VoIPReceiver"
*.server.udpApp[0..24].localPort = 4000+ancestorIndex(0)
*.server.udpApp[0..24].serverAddress = "ue["+string(ancestorIndex(0))+"]"

*.ue[*].udpApp[1].PacketSize = 40
*.ue[*].udpApp[1].destAddress = "server"
*.ue[*].udpApp[1].destPort = 4000+ancestorIndex(1)
*.ue[*].udpApp[1].localPort = 4088
*.ue[*].udpApp[1].typename = "VoIPSender"
*.ue[*].udpApp[1].startTime = uniform(0s,0.02s)
	#-------------------------

	#---------- DL -----------
*.ue[*].udpApp[0].typename = "VoIPReceiver"
*.ue[*].udpApp[0].localPort = 3000
*.ue[*].udpApp[0].serverAddress = "server"

*.server.udpApp[25..].PacketSize = 40
*.server.udpApp[25..].destAddress = "ue["+string(ancestorIndex(0)-25)+"]"
*.server.udpApp[25..].destPort = 3000
*.server.udpApp[25..].localPort = 3088+ancestorIndex(0)
*.server.udpApp[25..].typename = "VoIPSender"
*.server.udpApp[25..].startTime = uniform(0s,0.02s)
	#-------------------------


[Config VoIP-DL]
network = lte.simulations.networks.SingleCell
sim-time-limit=20s

**.ue[*].nic.rlc.LteRlcUmType = "LteRlcUmExperimental"
**.eNodeB.nic.rlc.LteRlcUmType = "LteRlcUmExperimental"
**.ue[*].nic.LteMacType = "LteMacUeExperimental"
**.eNodeB.nic.LteMacType = "LteMacEnbExperimental"

# Schedulers
**.mac.schedulingDisciplineDl = "MAXCI"
**.mac.schedulingDisciplineUl = "MAXCI"

# one UDP application for each user
*.ue[*].numUdpApps = 1

*.numUe = ${numUEs=5,50,100}
**.vector-recording = true
result-dir = results/${configname}

# the amount of UDP applications on server should be equal to (numUEs)*(ue[*].numUdpApps) 
*.server.numUdpApps = ${numUEs}

# connect each UE to the eNB
**.ue[*].macCellId = 1
**.ue[*].masterId = 1

# positioning and mobility
*.ue[*].mobility.acceleration = 0
*.ue[*].mobility.angle = uniform(0deg, 360deg)
*.ue[*].mobility.constraintAreaMaxX = 1000m
*.ue[*].mobility.constraintAreaMaxY = 1000m
*.ue[*].mobility.constraintAreaMinX = 0m
*.ue[*].mobility.constraintAreaMinY = 0m
*.ue[*].mobility.initFromDisplayString = false
*.ue[*].mobility.initialX = uniform(0m,600m)
*.ue[*].mobility.initialY = uniform(0m,600m)

*.eNodeB.mobility.initialX = 300m
*.eNodeB.mobility.initialY = 300m

*.ue[*].mobility.initialZ = 0
*.ue[*].mobility.speed = 1mps
*.ue[*].mobilityType = "LinearMobility"


#============= Application Setup =============
*.ue[*].udpApp[0].typename = "VoIPReceiver"
*.ue[*].udpApp[0].localPort = 3000
*.ue[*].udpApp[0].serverAddress = "server"

*.server.udpApp[*].PacketSize = 40
*.server.udpApp[*].destAddress = "ue["+string(ancestorIndex(0))+"]" # obtain the address of the client by reading its index in the array of udp Apps
*.server.udpApp[*].destAddresses = ""
*.server.udpApp[*].destPort = 3000
*.server.udpApp[*].localPort = 3088+ancestorIndex(0) 
*.server.udpApp[*].typename = "VoIPSender"
*.server.udpApp[*].startTime = uniform(0s,0.02s)
#------------------------------------#

#------------------------------------#
[Config VoIP-UL]
network = lte.simulations.networks.SingleCell
sim-time-limit=20s

**.ue[*].nic.rlc.LteRlcUmType = "LteRlcUmExperimental"
**.eNodeB.nic.rlc.LteRlcUmType = "LteRlcUmExperimental"
**.ue[*].nic.LteMacType = "LteMacUeExperimental"
**.eNodeB.nic.LteMacType = "LteMacEnbExperimental"

# Schedulers
**.mac.schedulingDisciplineDl = "MAXCI"
**.mac.schedulingDisciplineUl = "MAXCI"

# one UDP application for each user
*.ue[*].numUdpApps = 1

# the amount of UDP applications on server should be equal to (numUEs)*(ue[*].numUdpApps) 
*.server.numUdpApps = 1

# connect each UE to the eNB
**.ue[*].macCellId = 1
**.ue[*].masterId = 1

# positioning and mobility
*.ue[*].mobility.acceleration = 0
*.ue[*].mobility.angle = uniform(0deg, 360deg)
*.ue[*].mobility.initFromDisplayString = false
*.ue[*].mobility.initialX = uniform(370m,380m)
*.ue[*].mobility.initialY = uniform(240m,250m)
*.ue[*].mobility.initialZ = 0
*.ue[*].mobility.speed = 0mps
*.ue[*].mobilityType = "LinearMobility"

#============= Application Setup =============
*.server.udpApp[*].typename = "VoIPReceiver"
*.server.udpApp[*].localPort = 3000+ancestorIndex(0)

*.ue[*].udpApp[*].PacketSize = 40
# obtain the address of the client by reading its index in the array of udp Apps
*.ue[*].udpApp[*].destAddress = "server" 
*.ue[*].udpApp[*].destPort = 3000+ancestorIndex(1)
*.ue[*].udpApp[*].localPort = 3088 
*.ue[*].udpApp[*].typename = "VoIPSender"
*.ue[*].udpApp[*].startTime = uniform(0s,0.02s)
#------------------------------------#
