<routes>
<vType id="car" accel="1" decel="5" sigma="1.0" length="4" minGap="3" maxSpeed="10"/>
<route id="AB1" edges="AB1"/>
<route id="AB2" edges="AB2"/>
<route id="AB3" edges="AB3"/>
<route id="DC1" edges="DC1"/>
<route id="DC2" edges="DC2"/>
<vehicle depart="0" departPos="236" route="AB1" type="car" id="0" departSpeed="0" arrivalSpeed="10" />
<vehicle depart="0" departPos="226" route="AB1" type="car" id="1" departSpeed="0" arrivalSpeed="10" />
<vehicle depart="0" departPos="216" route="AB1" type="car" id="2" departSpeed="0" arrivalSpeed="10" />
<vehicle depart="0" departPos="206" route="AB1" type="car" id="3" departSpeed="0" arrivalSpeed="10" />
<vehicle depart="0" departPos="116" route="AB3" type="car" id="4" departSpeed="0" arrivalSpeed="10" />
<vehicle depart="0" departPos="106" route="AB3" type="car" id="5" departSpeed="0" arrivalSpeed="10" />
<vehicle depart="0" departPos="96" route="AB3" type="car" id="6" departSpeed="0" arrivalSpeed="10" />
<vehicle depart="0" departPos="86" route="AB3" type="car" id="7" departSpeed="0" arrivalSpeed="10" />
<vehicle depart="0" departPos="56" route="AB3" type="car" id="8" departSpeed="0" arrivalSpeed="10" />
<vehicle depart="0" departPos="46" route="AB3" type="car" id="9" departSpeed="0" arrivalSpeed="10" />
<vehicle depart="0" departPos="36" route="AB3" type="car" id="10" departSpeed="0" arrivalSpeed="10" />
<vehicle depart="0" departPos="26" route="AB3" type="car" id="11" departSpeed="0" arrivalSpeed="10" />
<vehicle depart="0" departPos="236" route="DC1" type="car" id="12" departSpeed="0" arrivalSpeed="10" />
<vehicle depart="0" departPos="226" route="DC1" type="car" id="13" departSpeed="0" arrivalSpeed="10" />
<vehicle depart="0" departPos="216" route="DC1" type="car" id="14" departSpeed="0" arrivalSpeed="10" />
<vehicle depart="0" departPos="206" route="DC1" type="car" id="15" departSpeed="0" arrivalSpeed="10" />
<vehicle depart="0" departPos="176" route="DC1" type="car" id="16" departSpeed="0" arrivalSpeed="10" />
<vehicle depart="0" departPos="166" route="DC1" type="car" id="17" departSpeed="0" arrivalSpeed="10" />
<vehicle depart="0" departPos="156" route="DC1" type="car" id="18" departSpeed="0" arrivalSpeed="10" />
<vehicle depart="0" departPos="146" route="DC1" type="car" id="19" departSpeed="0" arrivalSpeed="10" />
<vehicle depart="0" departPos="116" route="DC1" type="car" id="20" departSpeed="0" arrivalSpeed="10" />
<vehicle depart="0" departPos="106" route="DC1" type="car" id="21" departSpeed="0" arrivalSpeed="10" />
<vehicle depart="0" departPos="96" route="DC1" type="car" id="22" departSpeed="0" arrivalSpeed="10" />
<vehicle depart="0" departPos="86" route="DC1" type="car" id="23" departSpeed="0" arrivalSpeed="10" />
<vehicle depart="0" departPos="56" route="DC1" type="car" id="24" departSpeed="0" arrivalSpeed="10" />
<vehicle depart="0" departPos="46" route="DC1" type="car" id="25" departSpeed="0" arrivalSpeed="10" />
<vehicle depart="0" departPos="36" route="DC1" type="car" id="26" departSpeed="0" arrivalSpeed="10" />
<vehicle depart="0" departPos="26" route="DC1" type="car" id="27" departSpeed="0" arrivalSpeed="10" />
<vehicle depart="0" departPos="236" route="DC2" type="car" id="28" departSpeed="0" arrivalSpeed="10" />
<vehicle depart="0" departPos="226" route="DC2" type="car" id="29" departSpeed="0" arrivalSpeed="10" />
<vehicle depart="0" departPos="216" route="DC2" type="car" id="30" departSpeed="0" arrivalSpeed="10" />
<vehicle depart="0" departPos="206" route="DC2" type="car" id="31" departSpeed="0" arrivalSpeed="10" />
<vehicle depart="0" departPos="176" route="DC2" type="car" id="32" departSpeed="0" arrivalSpeed="10" />
<vehicle depart="0" departPos="166" route="DC2" type="car" id="33" departSpeed="0" arrivalSpeed="10" />
<vehicle depart="0" departPos="156" route="DC2" type="car" id="34" departSpeed="0" arrivalSpeed="10" />
<vehicle depart="0" departPos="146" route="DC2" type="car" id="35" departSpeed="0" arrivalSpeed="10" />
<vehicle depart="0" departPos="116" route="DC2" type="car" id="36" departSpeed="0" arrivalSpeed="10" />
<vehicle depart="0" departPos="106" route="DC2" type="car" id="37" departSpeed="0" arrivalSpeed="10" />
<vehicle depart="0" departPos="96" route="DC2" type="car" id="38" departSpeed="0" arrivalSpeed="10" />
<vehicle depart="0" departPos="86" route="DC2" type="car" id="39" departSpeed="0" arrivalSpeed="10" />
<vehicle depart="0" departPos="56" route="DC2" type="car" id="40" departSpeed="0" arrivalSpeed="10" />
<vehicle depart="0" departPos="46" route="DC2" type="car" id="41" departSpeed="0" arrivalSpeed="10" />
<vehicle depart="0" departPos="36" route="DC2" type="car" id="42" departSpeed="0" arrivalSpeed="10" />
<vehicle depart="0" departPos="26" route="DC2" type="car" id="43" departSpeed="0" arrivalSpeed="10" />
<vehicle depart="0" departPos="176" route="AB1" type="car" id="44" departSpeed="0" arrivalSpeed="10" />
<vehicle depart="0" departPos="166" route="AB1" type="car" id="45" departSpeed="0" arrivalSpeed="10" />
<vehicle depart="0" departPos="156" route="AB1" type="car" id="46" departSpeed="0" arrivalSpeed="10" />
<vehicle depart="0" departPos="146" route="AB1" type="car" id="47" departSpeed="0" arrivalSpeed="10" />
<vehicle depart="0" departPos="116" route="AB1" type="car" id="48" departSpeed="0" arrivalSpeed="10" />
<vehicle depart="0" departPos="106" route="AB1" type="car" id="49" departSpeed="0" arrivalSpeed="10" />
<vehicle depart="0" departPos="96" route="AB1" type="car" id="50" departSpeed="0" arrivalSpeed="10" />
<vehicle depart="0" departPos="86" route="AB1" type="car" id="51" departSpeed="0" arrivalSpeed="10" />
<vehicle depart="0" departPos="56" route="AB1" type="car" id="52" departSpeed="0" arrivalSpeed="10" />
<vehicle depart="0" departPos="46" route="AB1" type="car" id="53" departSpeed="0" arrivalSpeed="10" />
<vehicle depart="0" departPos="36" route="AB1" type="car" id="54" departSpeed="0" arrivalSpeed="10" />
<vehicle depart="0" departPos="26" route="AB1" type="car" id="55" departSpeed="0" arrivalSpeed="10" />
<vehicle depart="0" departPos="236" route="AB2" type="car" id="56" departSpeed="0" arrivalSpeed="10" />
<vehicle depart="0" departPos="226" route="AB2" type="car" id="57" departSpeed="0" arrivalSpeed="10" />
<vehicle depart="0" departPos="216" route="AB2" type="car" id="58" departSpeed="0" arrivalSpeed="10" />
<vehicle depart="0" departPos="206" route="AB2" type="car" id="59" departSpeed="0" arrivalSpeed="10" />
<vehicle depart="0" departPos="176" route="AB2" type="car" id="60" departSpeed="0" arrivalSpeed="10" />
<vehicle depart="0" departPos="166" route="AB2" type="car" id="61" departSpeed="0" arrivalSpeed="10" />
<vehicle depart="0" departPos="156" route="AB2" type="car" id="62" departSpeed="0" arrivalSpeed="10" />
<vehicle depart="0" departPos="146" route="AB2" type="car" id="63" departSpeed="0" arrivalSpeed="10" />
<vehicle depart="0" departPos="116" route="AB2" type="car" id="64" departSpeed="0" arrivalSpeed="10" />
<vehicle depart="0" departPos="106" route="AB2" type="car" id="65" departSpeed="0" arrivalSpeed="10" />
<vehicle depart="0" departPos="96" route="AB2" type="car" id="66" departSpeed="0" arrivalSpeed="10" />
<vehicle depart="0" departPos="86" route="AB2" type="car" id="67" departSpeed="0" arrivalSpeed="10" />
<vehicle depart="0" departPos="56" route="AB2" type="car" id="68" departSpeed="0" arrivalSpeed="10" />
<vehicle depart="0" departPos="46" route="AB2" type="car" id="69" departSpeed="0" arrivalSpeed="10" />
<vehicle depart="0" departPos="36" route="AB2" type="car" id="70" departSpeed="0" arrivalSpeed="10" />
<vehicle depart="0" departPos="26" route="AB2" type="car" id="71" departSpeed="0" arrivalSpeed="10" />
<vehicle depart="0" departPos="236" route="AB3" type="car" id="72" departSpeed="0" arrivalSpeed="10" />
<vehicle depart="0" departPos="226" route="AB3" type="car" id="73" departSpeed="0" arrivalSpeed="10" />
<vehicle depart="0" departPos="216" route="AB3" type="car" id="74" departSpeed="0" arrivalSpeed="10" />
<vehicle depart="0" departPos="206" route="AB3" type="car" id="75" departSpeed="0" arrivalSpeed="10" />
<vehicle depart="0" departPos="176" route="AB3" type="car" id="76" departSpeed="0" arrivalSpeed="10" />
<vehicle depart="0" departPos="166" route="AB3" type="car" id="77" departSpeed="0" arrivalSpeed="10" />
<vehicle depart="0" departPos="156" route="AB3" type="car" id="78" departSpeed="0" arrivalSpeed="10" />
<vehicle depart="0" departPos="146" route="AB3" type="car" id="79" departSpeed="0" arrivalSpeed="10" />
</routes>