<configuration>
	<input>
		<net-file value="netUD.net.xml" />
		<route-files value="netUD.rou.xml" />
	</input>
	<time>
		<begin value="0" />
		<end value="10000" />
		<step-length value="0.1" />
	</time>
</configuration>