<?xml version="1.0" encoding="UTF-8"?>

<!-- generated on Sun Jun  3 16:14:58 2018 by SUMO netconvert Version 0.32.0
<?xml version="1.0" encoding="UTF-8"?>

<configuration xmlns:xsi="http://www.w3.org/2001/XMLSchema-instance" xsi:noNamespaceSchemaLocation="http://sumo.dlr.de/xsd/netconvertConfiguration.xsd">

    <input>
        <node-files value="generated/netUD.nod.xml"/>
        <edge-files value="generated/netUD.edg.xml"/>
    </input>

    <output>
        <output-file value="generated/netUD.net.xml"/>
    </output>

</configuration>
-->

<net version="0.27" xmlns:xsi="http://www.w3.org/2001/XMLSchema-instance" xsi:noNamespaceSchemaLocation="http://sumo.dlr.de/xsd/net_file.xsd">

    <location netOffset="-70.00,-10.00" convBoundary="0.00,0.00,170.00,480.00" origBoundary="70.00,10.00,240.00,490.00" projParameter="!"/>

    <edge id="AB1" from="A1" to="B1" priority="-1">
        <lane id="AB1_0" index="0" speed="13.90" length="480.00" shape="31.65,0.00 31.65,480.00"/>
    </edge>
    <edge id="AB2" from="A2" to="B2" priority="-1">
        <lane id="AB2_0" index="0" speed="13.90" length="480.00" shape="81.65,0.00 81.65,480.00"/>
    </edge>
    <edge id="AB3" from="A3" to="B3" priority="-1">
        <lane id="AB3_0" index="0" speed="13.90" length="480.00" shape="131.65,0.00 131.65,480.00"/>
    </edge>
    <edge id="DC1" from="D1" to="C1" priority="-1">
        <lane id="DC1_0" index="0" speed="13.90" length="360.00" shape="-1.65,420.00 -1.65,60.00"/>
    </edge>
    <edge id="DC2" from="D2" to="C2" priority="-1">
        <lane id="DC2_0" index="0" speed="13.90" length="360.00" shape="168.35,420.00 168.35,60.00"/>
    </edge>

    <junction id="A1" type="dead_end" x="30.00" y="0.00" incLanes="" intLanes="" shape="30.05,0.00 33.25,0.00"/>
    <junction id="A2" type="dead_end" x="80.00" y="0.00" incLanes="" intLanes="" shape="80.05,0.00 83.25,0.00"/>
    <junction id="A3" type="dead_end" x="130.00" y="0.00" incLanes="" intLanes="" shape="130.05,0.00 133.25,0.00"/>
    <junction id="B1" type="dead_end" x="30.00" y="480.00" incLanes="AB1_0" intLanes="" shape="33.25,480.00 30.05,480.00"/>
    <junction id="B2" type="dead_end" x="80.00" y="480.00" incLanes="AB2_0" intLanes="" shape="83.25,480.00 80.05,480.00"/>
    <junction id="B3" type="dead_end" x="130.00" y="480.00" incLanes="AB3_0" intLanes="" shape="133.25,480.00 130.05,480.00"/>
    <junction id="C1" type="dead_end" x="0.00" y="60.00" incLanes="DC1_0" intLanes="" shape="-3.25,60.00 -0.05,60.00"/>
    <junction id="C2" type="dead_end" x="170.00" y="60.00" incLanes="DC2_0" intLanes="" shape="166.75,60.00 169.95,60.00"/>
    <junction id="D1" type="dead_end" x="0.00" y="420.00" incLanes="" intLanes="" shape="-0.05,420.00 -3.25,420.00"/>
    <junction id="D2" type="dead_end" x="170.00" y="420.00" incLanes="" intLanes="" shape="169.95,420.00 166.75,420.00"/>

</net>
