<routes>
    <vType id="Car" accel="1.8" decel="4.5" sigma="1.0" length="4" minGap="2.5" maxSpeed="40" />
    <route id="routeA1lExit" edges="A1ltoA1lB2r A1lB2rtoB2r"/>
    <route id="routeA1lContinue" edges="A1ltoA1lB2r A1lB2rtoA2l"/>

    <route id="routeA1rExit" edges="A1rtoA1rB2l A1rB2ltoB2l"/>
    <route id="routeA1rContinue" edges="A1rtoA1rB2l A1rB2ltoA2r"/>
    
    <vehicle depart="1" departPos="base" route="routeA1lExit" type="Car" id="0" />
    <vehicle depart="1" departPos="base" route="routeA1lContinue" type="Car" id="1"  />
    <vehicle depart="2" departPos="base" route="routeA1lContinue" type="Car" id="2" />
    <vehicle depart="2" departPos="base" route="routeA1rExit" type="Car" id="3" />
    <vehicle depart="2" departPos="base" route="routeA1rContinue" type="Car" id="4" />
    <vehicle depart="3" departPos="base" route="routeA1rContinue" type="Car" id="5" />
    <vehicle depart="3" departPos="base" route="routeA1lExit" type="Car" id="6" />
    <vehicle depart="4" departPos="base" route="routeA1rExit" type="Car" id="7" />
    <vehicle depart="4" departPos="base" route="routeA1lContinue" type="Car" id="8" />
    <vehicle depart="5" departPos="base" route="routeA1lContinue" type="Car" id="9" />
    <vehicle depart="6" departPos="base" route="routeA1rContinue" type="Car" id="10" />
    <vehicle depart="7" departPos="base" route="routeA1rContinue" type="Car" id="11" />
    <vehicle depart="8" departPos="base" route="routeA1lContinue" type="Car" id="12" />
    <vehicle depart="8" departPos="base" route="routeA1lContinue" type="Car" id="13" />
    <vehicle depart="9" departPos="base" route="routeA1rContinue" type="Car" id="14" />
    <vehicle depart="10" departPos="base" route="routeA1rContinue" type="Car" id="15" />
    <vehicle depart="10" departPos="base" route="routeA1rExit" type="Car" id="16" />
    <vehicle depart="11" departPos="base" route="routeA1rExit" type="Car" id="17" />
    <vehicle depart="11" departPos="base" route="routeA1lContinue" type="Car" id="18" />
    <vehicle depart="12" departPos="base" route="routeA1rExit" type="Car" id="19" />
    <vehicle depart="13" departPos="base" route="routeA1rExit" type="Car" id="20" />
    <vehicle depart="14" departPos="base" route="routeA1rContinue" type="Car" id="21" />
    <vehicle depart="15" departPos="base" route="routeA1rContinue" type="Car" id="22" />
    <vehicle depart="16" departPos="base" route="routeA1lContinue" type="Car" id="23" />
    <vehicle depart="16" departPos="base" route="routeA1lContinue" type="Car" id="24" />
    <vehicle depart="17" departPos="base" route="routeA1lExit" type="Car" id="25" />
    <vehicle depart="17" departPos="base" route="routeA1lExit" type="Car" id="26" />
    <vehicle depart="17" departPos="base" route="routeA1lExit" type="Car" id="27" />
    
	<!--
	-->
    
    
	<!--
    <vehicle depart="1" departPos="free" route="routeA1lExit" type="Car" id="0" />
    <vehicle depart="1" departPos="free" route="routeA1lContinue" type="Car" id="1"  />
    <vehicle depart="2" departPos="free" route="routeA1lContinue" type="Car" id="2" />
    <vehicle depart="2" departPos="free" route="routeA1rExit" type="Car" id="3" />
    <vehicle depart="2" departPos="free" route="routeA1rContinue" type="Car" id="4" />
    <vehicle depart="3" departPos="free" route="routeA1rContinue" type="Car" id="5" />
    <vehicle depart="3" departPos="free" route="routeA1lExit" type="Car" id="6" />
    <vehicle depart="4" departPos="free" route="routeA1rExit" type="Car" id="7" />
    <vehicle depart="4" departPos="free" route="routeA1lContinue" type="Car" id="8" />
    <vehicle depart="5" departPos="free" route="routeA1lContinue" type="Car" id="9" />
    <vehicle depart="6" departPos="free" route="routeA1rContinue" type="Car" id="10" />
    <vehicle depart="7" departPos="free" route="routeA1rContinue" type="Car" id="11" />
    <vehicle depart="8" departPos="free" route="routeA1lContinue" type="Car" id="12" />
    <vehicle depart="8" departPos="free" route="routeA1lContinue" type="Car" id="13" />
    <vehicle depart="9" departPos="free" route="routeA1rContinue" type="Car" id="14" />
    <vehicle depart="10" departPos="free" route="routeA1rContinue" type="Car" id="15" />
    <vehicle depart="10" departPos="free" route="routeA1rExit" type="Car" id="16" />
    <vehicle depart="11" departPos="free" route="routeA1rExit" type="Car" id="17" />
    <vehicle depart="11" departPos="free" route="routeA1lContinue" type="Car" id="18" />
    <vehicle depart="12" departPos="free" route="routeA1rExit" type="Car" id="19" />
    <vehicle depart="13" departPos="free" route="routeA1rExit" type="Car" id="20" />
    <vehicle depart="14" departPos="free" route="routeA1rContinue" type="Car" id="21" />
    <vehicle depart="15" departPos="free" route="routeA1rContinue" type="Car" id="22" />
    <vehicle depart="16" departPos="free" route="routeA1lContinue" type="Car" id="23" />
    <vehicle depart="16" departPos="free" route="routeA1lContinue" type="Car" id="24" />
    <vehicle depart="17" departPos="free" route="routeA1lExit" type="Car" id="25" />
    <vehicle depart="17" departPos="free" route="routeA1lExit" type="Car" id="26" />
    <vehicle depart="17" departPos="free" route="routeA1lExit" type="Car" id="27" />
    -->
</routes>
