<?xml version="1.0" encoding="UTF-8"?>

<!-- generated on Tue Apr 10 15:46:46 2018 by SUMO netconvert Version 0.30.0
<?xml version="1.0" encoding="UTF-8"?>

<configuration xmlns:xsi="http://www.w3.org/2001/XMLSchema-instance" xsi:noNamespaceSchemaLocation="http://sumo.dlr.de/xsd/netconvertConfiguration.xsd">

    <input>
        <node-files value="Highway2Side.nod.xml"/>
        <edge-files value="Highway2Side.edg.xml"/>
    </input>

    <output>
        <output-file value="Highway2Side.net.xml"/>
    </output>

</configuration>
-->

<net version="0.27" xmlns:xsi="http://www.w3.org/2001/XMLSchema-instance" xsi:noNamespaceSchemaLocation="http://sumo.dlr.de/xsd/net_file.xsd">

    <location netOffset="-30.00,-50.00" convBoundary="0.00,0.00,420.00,380.00" origBoundary="30.00,50.00,450.00,430.00" projParameter="!"/>

    <edge id=":A1lB2r_0" function="internal">
        <lane id=":A1lB2r_0_0" index="0" speed="13.90" length="6.20" shape="191.65,198.55 191.65,204.75"/>
    </edge>
    <edge id=":A1lB2r_1" function="internal">
        <lane id=":A1lB2r_1_0" index="0" speed="13.90" length="5.00" shape="191.65,198.55 191.46,199.91 190.88,200.88 189.91,201.46 188.55,201.65"/>
    </edge>
    <edge id=":A1rB2l_0" function="internal">
        <lane id=":A1rB2l_0_0" index="0" speed="13.90" length="6.20" shape="218.35,231.45 218.35,225.25"/>
    </edge>
    <edge id=":A1rB2l_1" function="internal">
        <lane id=":A1rB2l_1_0" index="0" speed="13.90" length="5.00" shape="218.35,231.45 218.54,230.09 219.12,229.12 220.09,228.54 221.45,228.35"/>
    </edge>

    <edge id="A1lB2rtoA2l" from="A1lB2r" to="A2l" priority="-1">
        <lane id="A1lB2rtoA2l_0" index="0" speed="13.90" length="175.25" shape="191.65,204.75 191.65,380.00"/>
    </edge>
    <edge id="A1lB2rtoB2r" from="A1lB2r" to="B2r" priority="-1">
        <lane id="A1lB2rtoB2r_0" index="0" speed="13.90" length="188.55" shape="188.55,201.65 0.00,201.65"/>
    </edge>
    <edge id="A1ltoA1lB2r" from="A1l" to="A1lB2r" priority="-1">
        <lane id="A1ltoA1lB2r_0" index="0" speed="13.90" length="198.55" shape="191.65,0.00 191.65,198.55"/>
    </edge>
    <edge id="A1rB2ltoA2r" from="A1rB2l" to="A2r" priority="-1">
        <lane id="A1rB2ltoA2r_0" index="0" speed="13.90" length="225.25" shape="218.35,225.25 218.35,0.00"/>
    </edge>
    <edge id="A1rB2ltoB2l" from="A1rB2l" to="B2l" priority="-1">
        <lane id="A1rB2ltoB2l_0" index="0" speed="13.90" length="198.55" shape="221.45,228.35 420.00,228.35"/>
    </edge>
    <edge id="A1rtoA1rB2l" from="A1r" to="A1rB2l" priority="-1">
        <lane id="A1rtoA1rB2l_0" index="0" speed="13.90" length="148.55" shape="218.35,380.00 218.35,231.45"/>
    </edge>

    <junction id="A1l" type="dead_end" x="190.00" y="0.00" incLanes="" intLanes="" shape="190.05,0.00 193.25,0.00"/>
    <junction id="A1lB2r" type="priority" x="190.00" y="200.00" incLanes="A1ltoA1lB2r_0" intLanes=":A1lB2r_0_0 :A1lB2r_1_0" shape="190.05,204.75 193.25,204.75 193.25,198.55 190.05,198.55 188.55,200.05 188.55,203.25">
        <request index="0" response="00" foes="00" cont="0"/>
        <request index="1" response="00" foes="00" cont="0"/>
    </junction>
    <junction id="A1r" type="dead_end" x="220.00" y="380.00" incLanes="" intLanes="" shape="219.95,380.00 216.75,380.00"/>
    <junction id="A1rB2l" type="priority" x="220.00" y="230.00" incLanes="A1rtoA1rB2l_0" intLanes=":A1rB2l_0_0 :A1rB2l_1_0" shape="216.75,231.45 219.95,231.45 221.45,229.95 221.45,226.75 219.95,225.25 216.75,225.25">
        <request index="0" response="00" foes="00" cont="0"/>
        <request index="1" response="00" foes="00" cont="0"/>
    </junction>
    <junction id="A2l" type="dead_end" x="190.00" y="380.00" incLanes="A1lB2rtoA2l_0" intLanes="" shape="193.25,380.00 190.05,380.00"/>
    <junction id="A2r" type="dead_end" x="220.00" y="0.00" incLanes="A1rB2ltoA2r_0" intLanes="" shape="216.75,0.00 219.95,0.00"/>
    <junction id="B2l" type="dead_end" x="420.00" y="230.00" incLanes="A1rB2ltoB2l_0" intLanes="" shape="420.00,226.75 420.00,229.95"/>
    <junction id="B2r" type="dead_end" x="0.00" y="200.00" incLanes="A1lB2rtoB2r_0" intLanes="" shape="0.00,203.25 0.00,200.05"/>

    <connection from="A1ltoA1lB2r" to="A1lB2rtoA2l" fromLane="0" toLane="0" via=":A1lB2r_0_0" dir="s" state="M"/>
    <connection from="A1ltoA1lB2r" to="A1lB2rtoB2r" fromLane="0" toLane="0" via=":A1lB2r_1_0" dir="l" state="M"/>
    <connection from="A1rtoA1rB2l" to="A1rB2ltoA2r" fromLane="0" toLane="0" via=":A1rB2l_0_0" dir="s" state="M"/>
    <connection from="A1rtoA1rB2l" to="A1rB2ltoB2l" fromLane="0" toLane="0" via=":A1rB2l_1_0" dir="l" state="M"/>

    <connection from=":A1lB2r_0" to="A1lB2rtoA2l" fromLane="0" toLane="0" dir="s" state="M"/>
    <connection from=":A1lB2r_1" to="A1lB2rtoB2r" fromLane="0" toLane="0" dir="s" state="M"/>
    <connection from=":A1rB2l_0" to="A1rB2ltoA2r" fromLane="0" toLane="0" dir="s" state="M"/>
    <connection from=":A1rB2l_1" to="A1rB2ltoB2l" fromLane="0" toLane="0" dir="s" state="M"/>

</net>
