[General]
cmdenv-express-mode = true
cmdenv-autoflush = true
image-path = ../../images

##########################################################
#            Output Format Results                       #
##########################################################

repeat = 30
seed-set = ${repetition}
output-scalar-file = ${resultdir}/${iterationvars}/${repetition}.sca
output-vector-file = ${resultdir}/${iterationvars}/${repetition}.vec
**.scalar-recording = true
**.vector-recording = false

##########################################################
#                      Mobility                          #			
##########################################################		
**.mobility.constraintAreaMinZ = 0m
**.mobility.constraintAreaMaxZ = 0m

*.car[*].mobility.initFromDisplayString = false
*.car[*].mobilityType = "LinearMobility"
*.eNodeB1.mobility.initFromDisplayString = true
#
# cl = n. clusters - v = n. vehicles -  r = n. roads
include 12cl05v3r.ini
result-dir = 12cl05v3r

##########################################################
#            Simulation parameters                       #
##########################################################
debug-on-errors = false
print-undisposed = false

sim-time-limit = 59.9s

**.sctp.**.scalar-recording = false
**.sctp.**.vector-recording = false

**.coreDebug = false
**.routingRecorder.enabled = false

#**.displayAddresses = true

*.playgroundSizeX = 1100m
*.playgroundSizeY = 800m
*.playgroundSizeZ = 50m

##########################################################
#			         channel parameters                  #
##########################################################
**.channelControl.pMax = 10W
**.channelControl.alpha = 1.0
**.channelControl.carrierFrequency = 2100e+6Hz

# PhyLayer & Feedback parameters
**.lteNic.phy.channelModel=xmldoc("config_channel.xml")
**.feedbackComputation = xmldoc("config_channel.xml")

##########################################################
#              LTE specific parameters                   #
##########################################################

# Enable dynamic association of UEs (based on best SINR)
*.car[*].lteNic.phy.dynamicCellAssociation = true

**.car[*].masterId = 1     # useless if dynamic association is disabled
**.car[*].macCellId = 1    # useless if dynamic association is disabled
**.eNodeB1.macCellId = 1
**.eNodeB1.macNodeId = 1
**.eNodeB2.macCellId = 2
**.eNodeB2.macNodeId = 2
**.eNodeB3.macCellId = 3
**.eNodeB3.macNodeId = 3  
**.eNodeBCount = 3

# AMC module parameters 
**.rbAllocationType = "localized"
**.feedbackType = "ALLBANDS"
**.feedbackGeneratorType = "IDEAL"
**.maxHarqRtx = 3
#**.numUe = ${numUEs=10}

# RUs
**.cellInfo.ruRange = 50
**.cellInfo.ruTxPower = "50,50,50;"
**.cellInfo.antennaCws = "2;" # !!MACRO + RUS (numRus + 1)
**.cellInfo.numRbDl = 25
**.cellInfo.numRbUl = 25
**.numBands = 25
**.fbDelay = 1

# Enable handover
*.car[*].lteNic.phy.enableHandover = true
*.eNodeB*.lteNic.phy.enableHandover = true
*.eNodeB*.lteNic.phy.broadcastMessageInterval = 0.5s

#Disable HARQ INTERRUPT
**.msHarqInterrupt = false

##########################################################
#                    App Layer                           #
##########################################################
#
#	Car Side
#
# Enable D2D for the eNodeB and the UEs
*.eNodeB*.nicType = "LteNicEnbD2D"
*.car[*].nicType = "LteNicUeD2D"
**.amcMode = "D2D"
**.usePreconfiguredTxParams = true
**.d2dCqi = ${cqi=3,7,11,15}
#----------------------------------------
#
*.car[*].numUdpApps = 1
#
#	UEClusterize App:
*.car[*].udpApp[0].typename = "UEClusterizeApp"
*.car[*].udpApp[0].startTime = 0s										#when sending start clsuterize
*.car[*].udpApp[0].period = 0.1s										#after when retry sending start clusterize || sending info clusterize
*.car[*].udpApp[0].stopTime = 60s										#when sending stop clusterize (after receiving the ack on the start!)
*.car[*].udpApp[0].destAddress = "meHost.virtualisationInfrastructure"
#*.car[*].udpApp[0].v2vAppPath = ".udpApp[1]"
#----------------------------------------
#	V2vClusterBase App (or extensions):
#*.car[*].udpApp[1].typename = "V2vClusterBaseApp"
#*.car[*].udpApp[1].startTime = 0.01s
#*.car[*].udpApp[1].period = 0.01s				
#--------------------------------------------------------------
#
#	ME Host Side
#
#	resources available
*.meHost.maxMEApps = 200													#max ME Apps to instantiate
*.meHost.maxRam = 32GB													#max KBytes of Ram Space 
*.meHost.maxDisk = 100TB												#max KBytes of Ram Space 
*.meHost.maxCpu = 1														#max percentage of CPU
#----------------------------------------
#
#	MEServices available
*.meHost.mePlatform.numServices = 1
#
# MEClusterizeService:
*.meHost.MEClusterizeServicePath = ".mePlatform.udpService[0]"
*.meHost.mePlatform.udpService[0].typename = "MEShapedClusterizeService"
*.meHost.mePlatform.udpService[0].startTime = 0s
*.meHost.mePlatform.udpService[0].period = 0.5s
#
*.meHost.mePlatform.udpService[0].directionDelimiterThreshold = 0.09817rad		#0.09817 = PI/32
*.meHost.mePlatform.udpService[0].shape = "rectangle"							#shape supported "rectangle" and triangle
*.meHost.mePlatform.udpService[0].proximityThreshold = 20m						#rectangle/triangle side
*.meHost.mePlatform.udpService[0].roadLaneSize = 2.75m							#rectangle base
*.meHost.mePlatform.udpService[0].triangleAngle = 0.18rad						#triangle angle
#
*.meHost.mePlatform.udpService[0].preconfiguredTxMode = ${txm=0,1,2}					
																				# V2V_UNICAST_TX_MODE :					0
																				# V2V_MULTICAST_TX_MODE :				1
																				# INFRASTRUCTURE_UNICAST_TX_MODE : 		2
																				# INFRASTRUCTURE_MULTICAST_TX_MODE :	3 (not implemented)
constraint= ($txm==0 || $txm==1 || ($cqi==7 && $txm==2))
#
#	ME Host connected
**.eNodeB*.meHost = "meHost"
#
#											

# ----------------------------------------------------------------------------- #
# Config "Test"
#
[Config ThreeCell]
network = lte.simulations.MEC.InetMobility.MecInetThreeCell
# X2 and SCTP configuration
*.eNodeB1.numX2Apps = 1    # one x2App per peering eNodeB
*.eNodeB*.x2App[*].server.localPort = 5000 + ancestorIndex(1) # Server ports (x2App[0]=5000, x2App[1]=5001, ...)

*.eNodeB1.numX2Apps = 1    # one x2App 
*.eNodeB1.x2App[0].client.connectAddress = "eNodeB2%x2ppp0" 
*.eNodeB2.numX2Apps = 2    # two x2App 
*.eNodeB2.x2App[0].client.connectAddress = "eNodeB1%x2ppp0" 
*.eNodeB2.x2App[1].client.connectAddress = "eNodeB3%x2ppp0" 
*.eNodeB3.numX2Apps = 1    # one x2App 
*.eNodeB3.x2App[0].client.connectAddress = "eNodeB2%x2ppp0" 
**.sctp.nagleEnabled = false         # if true, transmission of small packets will be delayed on the X2
**.sctp.enableHeartbeats = false
#
# ----------------------------------------------------------------------------- #
# Config "Test"
#
[Config SingleCell]
network = lte.simulations.MEC.InetMobility.MecInetSingleCell
#