[General]
cmdenv-express-mode = true
cmdenv-autoflush = true
image-path = ../../images

##########################################################
#            Output Format Results                       #
##########################################################

repeat = 1
seed-set = ${repetition}
output-scalar-file = ${resultdir}/${iterationvars}/${repetition}.sca
output-vector-file = ${resultdir}/${iterationvars}/${repetition}.vec
**.scalar-recording = true
**.vector-recording = true

result-dir = simple_platooning

##########################################################
#            Simulation parameters                       #
##########################################################
debug-on-errors = false
print-undisposed = false

sim-time-limit = 70s

**.sctp.**.scalar-recording = false
**.sctp.**.vector-recording = false

**.coreDebug = false
**.routingRecorder.enabled = false

#**.displayAddresses = true

*.playgroundSizeX = 1100m
*.playgroundSizeY = 800m
*.playgroundSizeZ = 50m

##########################################################
#			         channel parameters                  #
##########################################################
**.channelControl.pMax = 10W
**.channelControl.alpha = 1.0
**.channelControl.carrierFrequency = 2100e+6Hz

# PhyLayer & Feedback parameters
**.lteNic.phy.channelModel=xmldoc("config_channel.xml")
**.feedbackComputation = xmldoc("config_channel.xml")

##########################################################
#              LTE specific parameters                   #
##########################################################

# Enable dynamic association of UEs (based on best SINR)
*.car[*].lteNic.phy.dynamicCellAssociation = true

**.car[*].masterId = 1     # useless if dynamic association is disabled
**.car[*].macCellId = 1    # useless if dynamic association is disabled
**.eNodeB1.macCellId = 1
**.eNodeB1.macNodeId = 1
**.eNodeB2.macCellId = 2
**.eNodeB2.macNodeId = 2
**.eNodeB3.macCellId = 3
**.eNodeB3.macNodeId = 3  
**.eNodeBCount = 3

# AMC module parameters 
**.rbAllocationType = "localized"
**.feedbackType = "ALLBANDS"
**.feedbackGeneratorType = "IDEAL"
**.maxHarqRtx = 3
#**.numUe = ${numUEs=10}

# RUs
**.cellInfo.ruRange = 50
**.cellInfo.ruTxPower = "50,50,50;"
**.cellInfo.antennaCws = "2;" # !!MACRO + RUS (numRus + 1)
**.cellInfo.numRbDl = 25
**.cellInfo.numRbUl = 25
**.numBands = 25
**.fbDelay = 1

# Enable handover
*.car[*].lteNic.phy.enableHandover = true
*.eNodeB*.lteNic.phy.enableHandover = true
*.eNodeB*.lteNic.phy.broadcastMessageInterval = 0.5s

#Disable HARQ INTERRUPT
**.msHarqInterrupt = false


##########################################################
#                      Mobility                          #			
##########################################################		
**.mobility.constraintAreaMinZ = 0m
**.mobility.constraintAreaMaxZ = 0m

*.car[*].mobility.initFromDisplayString = false
*.car[*].mobilityType = "LinearMobility"
*.car[*].mobility.updateInterval = 0.05s

*.eNodeB1.mobility.initFromDisplayString = true

**.numClusters = 1
**.numRoads = 1
**.numCars = 5
**.car[0].mobility.initialX = 150m
**.car[0].mobility.initialY = 10m
**.car[0].mobility.angle = 90deg
**.car[0].mobility.speed = 10mps
**.car[0].mobility.acceleration = 0

**.car[1].mobility.initialX = 150m
**.car[1].mobility.initialY = 40m
**.car[1].mobility.angle = 90deg
**.car[1].mobility.speed = 10mps
**.car[1].mobility.acceleration = 0

**.car[2].mobility.initialX = 150m
**.car[2].mobility.initialY = 70m
**.car[2].mobility.angle = 90deg
**.car[2].mobility.speed = 10mps
**.car[2].mobility.acceleration = 0

**.car[3].mobility.initialX = 150m
**.car[3].mobility.initialY = 100m
**.car[3].mobility.angle = 90deg
**.car[3].mobility.speed = 10mps
**.car[3].mobility.acceleration = 0

**.car[4].mobility.initialX = 150m
**.car[4].mobility.initialY = 130m
**.car[4].mobility.angle = 90deg
**.car[4].mobility.speed = 10mps
**.car[4].mobility.acceleration = 0

##########################################################
#                    App Layer                           #
##########################################################
#
#########################_Car Side_#######################
#
# Enable D2D for the eNodeB and the UEs
*.eNodeB*.nicType = "LteNicEnbD2D"
*.car[*].nicType = "LteNicUeD2D"
**.amcMode = "D2D"
**.usePreconfiguredTxParams = true
**.d2dCqi = ${cqi=7}
#----------------------------------------
*.car[*].numUdpApps = 1
#----------------------------------------
#
#	UEClusterize App:
*.car[*].udpApp[0].typename = "UEClusterizeApp"
*.car[*].udpApp[0].startTime = 0s										#when sending start clsuterize
*.car[*].udpApp[0].period = 0.1s										#after when retry sending start clusterize || sending info clusterize
*.car[*].udpApp[0].stopTime = 100s										#when sending stop clusterize (after receiving the ack on the start!)
*.car[*].udpApp[0].meHostAddress = "meHost.virtualisationInfrastructure"
#--------------------------------------------------------------
#
######################_ME Host Side_#####################
#
#	resources available
*.meHost.maxMEApps = 100												#max ME Apps to instantiate
*.meHost.maxRam = 32GB													#max KBytes of Ram Space 
*.meHost.maxDisk = 100TB												#max KBytes of Ram Space 
*.meHost.maxCpu = 1														#max percentage of CPU
#----------------------------------------
#
#	MEServices available
*.meHost.mePlatform.numServices = 1
#
#-------MEClusterizeService:-------------
# 
*.meHost.mePlatform.udpService[0].typename = "MEPlatooningService"
*.meHost.mePlatform.udpService[0].startTime = 0s
*.meHost.mePlatform.udpService[0].period = 0.5s
#
*.meHost.mePlatform.udpService[0].directionDelimiterThreshold = 0.09817rad		#0.09817 = PI/32
*.meHost.mePlatform.udpService[0].shape = "rectangle"							#shape supported "rectangle" and triangle
*.meHost.mePlatform.udpService[0].proximityThreshold = 60m						#rectangle/triangle side
*.meHost.mePlatform.udpService[0].roadLaneSize = 2.75m							#rectangle base
*.meHost.mePlatform.udpService[0].triangleAngle = 0.18rad						#triangle angle
#
*.meHost.mePlatform.udpService[0].desiredVelocity = 10mps						#
*.meHost.mePlatform.udpService[0].desiredDistance = 5m							#
#
*.meHost.mePlatform.udpService[0].preconfiguredTxMode = ${txm="V2V_UNICAST","V2V_MULTICAST","DOWNLINK_UNICAST"}		#"V2V_UNICAST","V2V_MULTICAST","DOWNLINK_UNICAST","HYBRID"

constraint= ($txm=="V2V_UNICAST" || $txm=="V2V_MULTICAST" || ($cqi==7 && $txm=="DOWNLINK_UNICAST"))
#----------------------------------------
#	ME Host connected
**.eNodeB*.meHost = "meHost"								
# ----------------------------------------------------------------------------- #
# Config "Test"
#
[Config ThreeCell]
network = lte.simulations.MEC.InetMobility.MecInetThreeCell
# X2 and SCTP configuration
*.eNodeB1.numX2Apps = 1    # one x2App per peering eNodeB
*.eNodeB*.x2App[*].server.localPort = 5000 + ancestorIndex(1) # Server ports (x2App[0]=5000, x2App[1]=5001, ...)

*.eNodeB1.numX2Apps = 1    # one x2App 
*.eNodeB1.x2App[0].client.connectAddress = "eNodeB2%x2ppp0" 
*.eNodeB2.numX2Apps = 2    # two x2App 
*.eNodeB2.x2App[0].client.connectAddress = "eNodeB1%x2ppp0" 
*.eNodeB2.x2App[1].client.connectAddress = "eNodeB3%x2ppp0" 
*.eNodeB3.numX2Apps = 1    # one x2App 
*.eNodeB3.x2App[0].client.connectAddress = "eNodeB2%x2ppp0" 
**.sctp.nagleEnabled = false         # if true, transmission of small packets will be delayed on the X2
**.sctp.enableHeartbeats = false
