[General]
network = lte.simulations.networks.lteCoreNetwork
result-dir = ResultLteCoreNetwork
record-eventlog = true
sim-time-limit = 10s

#============ TFT and TEID tables configuration ============
**.pgwStandard.trafficFlowFilter.filterFileName = "lteCoreConfigFiles/pgw.xml"
**.pgwStandard.gtp_user.teidFileName = "lteCoreConfigFiles/pgw.xml"
**.pgwStandard.gtp_user.tftFileName =  "lteCoreConfigFiles/pgw.xml"

**.eNB1.trafficFlowFilter.filterFileName = "lteCoreConfigFiles/enb1.xml"
**.eNB1.gtp_user.teidFileName = "lteCoreConfigFiles/enb1.xml"
**.eNB1.gtp_user.tftFileName = "lteCoreConfigFiles/enb1.xml"

**.eNB2.trafficFlowFilter.filterFileName = "lteCoreConfigFiles/enb2.xml"
**.eNB2.gtp_user.teidFileName = "lteCoreConfigFiles/enb2.xml"
**.eNB2.gtp_user.tftFileName = "lteCoreConfigFiles/enb2.xml"

**.eNB3.trafficFlowFilter.filterFileName = "lteCoreConfigFiles/enb3.xml"
**.eNB3.gtp_user.teidFileName = "lteCoreConfigFiles/enb3.xml"
**.eNB3.gtp_user.tftFileName = "lteCoreConfigFiles/enb3.xml"

**.sgwStandard1.gtp_user.teidFileName = "lteCoreConfigFiles/sgw1.xml"
**.sgwStandard2.gtp_user.teidFileName = "lteCoreConfigFiles/sgw2.xml"
#===========================================================


[Config Internet-LTE]
# The InternetHost pings every UE 
#==================== PING Apps Configuration ==============
**.InternetHost.numPingApps = 3
**.InternetHost.pingApp[*].stopTime = 8s

**.InternetHost.pingApp[0].destAddr = "UE1"
**.InternetHost.pingApp[0].startTime = 1s

**.InternetHost.pingApp[1].destAddr = "UE2"
**.InternetHost.pingApp[1].startTime = 1.2s

**.InternetHost.pingApp[2].destAddr = "UE3"
**.InternetHost.pingApp[2].startTime = 1.4s

#===========================================================


[Config LTE-LTE]
#UE1 Pings UE2 and UE3 and vice-versa
#==================== PING Apps Configuration ==============
**.UE1.numPingApps = 2
**.UE2.numPingApps = 1
**.UE3.numPingApps = 1
**.UE*.pingApp[*].stopTime = 8s

**.UE1.pingApp[0].destAddr = "UE2"
**.UE1.pingApp[0].startTime = 1s

**.UE1.pingApp[1].destAddr = "UE3"
**.UE1.pingApp[1].startTime = 1.2s

**.UE2.pingApp[0].destAddr = "UE1"
**.UE2.pingApp[0].startTime = 1.4s

**.UE3.pingApp[0].destAddr = "UE1"
**.UE3.pingApp[0].startTime = 1.6s
#===========================================================

