<routes>
  <!--Namespace(N=75, filecount=None, input='routes.txt', launch=False, output='singleIntersection.rou.xml', quarter=100)-->
  <vType id="car" accel="0.8" decel="4.5" sigma="1.0" length="4" minGap="2.5" maxSpeed="13.89" guiShape="passenger" />
  <route id="1" edges="1/0to1/1 1/1to1/2"/>
  <route id="2" edges="1/2to1/1 1/1to1/0"/>
  <route id="3" edges="2/1to1/1 1/1to0/1"/>
  <route id="4" edges="0/1to1/1 1/1to2/1"/>
  <vehicle id="0" type="car" route="2" depart="0"/>
  <vehicle id="1" type="car" route="3" depart="0"/>
  <vehicle id="2" type="car" route="2" depart="2"/>
  <vehicle id="3" type="car" route="3" depart="3"/>
  <vehicle id="4" type="car" route="2" depart="5"/>
  <vehicle id="5" type="car" route="3" depart="5"/>
  <vehicle id="7" type="car" route="3" depart="7"/>
  <vehicle id="6" type="car" route="2" depart="10"/>
  <vehicle id="8" type="car" route="2" depart="12"/>
  <vehicle id="9" type="car" route="3" depart="20"/>
  <!--
  <vehicle id="0" type="car" route="2" depart="0"/>
  <vehicle id="1" type="car" route="3" depart="0"/>
  <vehicle id="2" type="car" route="2" depart="2"/>
  <vehicle id="3" type="car" route="3" depart="3"/>
  <vehicle id="4" type="car" route="2" depart="5"/>
  <vehicle id="5" type="car" route="3" depart="5"/>
  <vehicle id="7" type="car" route="3" depart="7"/>
  <vehicle id="6" type="car" route="2" depart="10"/>
  <vehicle id="8" type="car" route="2" depart="12"/>
  <vehicle id="9" type="car" route="3" depart="20"/>

  <vehicle id="5" type="car" route="3" depart="4"/>
  <vehicle id="6" type="car" route="2" depart="5"/>
  <vehicle id="7" type="car" route="2" depart="5"/>
  <vehicle id="8" type="car" route="2" depart="6"/>
  <vehicle id="9" type="car" route="2" depart="7"/>
  <vehicle id="10" type="car" route="4" depart="7"/>
  <vehicle id="11" type="car" route="3" depart="10"/>
  <vehicle id="12" type="car" route="1" depart="11"/>
  <vehicle id="13" type="car" route="2" depart="13"/>
  <vehicle id="14" type="car" route="2" depart="13"/>
  <vehicle id="15" type="car" route="1" depart="13"/>
  <vehicle id="16" type="car" route="2" depart="13"/>
  <vehicle id="17" type="car" route="1" depart="14"/>
  <vehicle id="18" type="car" route="1" depart="17"/>
  <vehicle id="19" type="car" route="2" depart="18"/>
  <vehicle id="20" type="car" route="3" depart="19"/>
  <vehicle id="21" type="car" route="4" depart="20"/>
  <vehicle id="22" type="car" route="1" depart="20"/>
  <vehicle id="23" type="car" route="4" depart="23"/>
  <vehicle id="24" type="car" route="1" depart="23"/>
  <vehicle id="25" type="car" route="1" depart="24"/>
  <vehicle id="26" type="car" route="4" depart="24"/>
  <vehicle id="27" type="car" route="2" depart="25"/>
  <vehicle id="28" type="car" route="1" depart="25"/>
  <vehicle id="29" type="car" route="3" depart="25"/>
  <vehicle id="30" type="car" route="3" depart="26"/>
  <vehicle id="31" type="car" route="3" depart="27"/>
  <vehicle id="32" type="car" route="2" depart="27"/>
  <vehicle id="33" type="car" route="2" depart="27"/>
  <vehicle id="34" type="car" route="4" depart="27"/>
  <vehicle id="35" type="car" route="4" depart="28"/>
  <vehicle id="36" type="car" route="4" depart="33"/>
  <vehicle id="37" type="car" route="2" depart="33"/>
  <vehicle id="38" type="car" route="4" depart="34"/>
  <vehicle id="39" type="car" route="2" depart="34"/>
  <vehicle id="40" type="car" route="3" depart="36"/>
  <vehicle id="41" type="car" route="4" depart="37"/>
  <vehicle id="42" type="car" route="2" depart="37"/>
  <vehicle id="43" type="car" route="2" depart="40"/>
  <vehicle id="44" type="car" route="1" depart="40"/>
  <vehicle id="45" type="car" route="2" depart="42"/>
  <vehicle id="46" type="car" route="4" depart="42"/>
  <vehicle id="47" type="car" route="1" depart="46"/>
  <vehicle id="48" type="car" route="2" depart="47"/>
  <vehicle id="49" type="car" route="4" depart="48"/>
  <vehicle id="50" type="car" route="1" depart="49"/>
  <vehicle id="51" type="car" route="2" depart="50"/>
  <vehicle id="52" type="car" route="1" depart="50"/>
  <vehicle id="53" type="car" route="3" depart="51"/>
  <vehicle id="54" type="car" route="3" depart="51"/>
  <vehicle id="55" type="car" route="4" depart="55"/>
  <vehicle id="56" type="car" route="4" depart="55"/>
  <vehicle id="57" type="car" route="1" depart="56"/>
  <vehicle id="58" type="car" route="3" depart="56"/>
  <vehicle id="59" type="car" route="4" depart="57"/>
  <vehicle id="60" type="car" route="2" depart="60"/>
  <vehicle id="61" type="car" route="3" depart="61"/>
  <vehicle id="62" type="car" route="1" depart="61"/>
  <vehicle id="63" type="car" route="3" depart="61"/>
  <vehicle id="64" type="car" route="1" depart="61"/>
  <vehicle id="65" type="car" route="3" depart="65"/>
  <vehicle id="66" type="car" route="3" depart="66"/>
  <vehicle id="67" type="car" route="3" depart="67"/>
  <vehicle id="68" type="car" route="1" depart="67"/>
  <vehicle id="69" type="car" route="3" depart="69"/>
  <vehicle id="70" type="car" route="2" depart="72"/>
  <vehicle id="71" type="car" route="3" depart="72"/>
  <vehicle id="72" type="car" route="2" depart="74"/>
  <vehicle id="73" type="car" route="4" depart="74"/>
  <vehicle id="74" type="car" route="1" depart="74"/>
  <vehicle id="75" type="car" route="1" depart="76"/>
  <vehicle id="76" type="car" route="2" depart="76"/>
  <vehicle id="77" type="car" route="1" depart="78"/>
  <vehicle id="78" type="car" route="2" depart="78"/>
  <vehicle id="79" type="car" route="3" depart="79"/>
  <vehicle id="80" type="car" route="2" depart="81"/>
  <vehicle id="81" type="car" route="4" depart="81"/>
  <vehicle id="82" type="car" route="3" depart="83"/>
  <vehicle id="83" type="car" route="1" depart="84"/>
  <vehicle id="84" type="car" route="3" depart="84"/>
  <vehicle id="85" type="car" route="4" depart="84"/>
  <vehicle id="86" type="car" route="1" depart="85"/>
  <vehicle id="87" type="car" route="2" depart="85"/>
  <vehicle id="88" type="car" route="2" depart="86"/>
  <vehicle id="89" type="car" route="4" depart="88"/>
  <vehicle id="90" type="car" route="1" depart="90"/>
  <vehicle id="91" type="car" route="1" depart="91"/>
  <vehicle id="92" type="car" route="3" depart="92"/>
  <vehicle id="93" type="car" route="2" depart="92"/>
  <vehicle id="94" type="car" route="3" depart="93"/>
  <vehicle id="95" type="car" route="1" depart="94"/>
  <vehicle id="96" type="car" route="2" depart="96"/>
  <vehicle id="97" type="car" route="1" depart="97"/>
  <vehicle id="98" type="car" route="1" depart="98"/>
  <vehicle id="99" type="car" route="2" depart="100"/>
  <vehicle id="100" type="car" route="1" depart="100"/>
  <vehicle id="101" type="car" route="4" depart="100"/>
  <vehicle id="102" type="car" route="4" depart="101"/>
  <vehicle id="103" type="car" route="1" depart="101"/>
  <vehicle id="104" type="car" route="3" depart="101"/>
  <vehicle id="105" type="car" route="2" depart="101"/>
  <vehicle id="106" type="car" route="4" depart="102"/>
  <vehicle id="107" type="car" route="4" depart="103"/>
  <vehicle id="108" type="car" route="2" depart="104"/>
  <vehicle id="109" type="car" route="3" depart="104"/>
  <vehicle id="110" type="car" route="3" depart="105"/>
  <vehicle id="111" type="car" route="3" depart="106"/>
  <vehicle id="112" type="car" route="4" depart="106"/>
  <vehicle id="113" type="car" route="2" depart="107"/>
  <vehicle id="114" type="car" route="1" depart="107"/>
  <vehicle id="115" type="car" route="1" depart="108"/>
  <vehicle id="116" type="car" route="2" depart="108"/>
  <vehicle id="117" type="car" route="2" depart="109"/>
  <vehicle id="118" type="car" route="2" depart="110"/>
  <vehicle id="119" type="car" route="3" depart="110"/>
  <vehicle id="120" type="car" route="1" depart="111"/>
  <vehicle id="121" type="car" route="3" depart="112"/>
  <vehicle id="122" type="car" route="1" depart="112"/>
  <vehicle id="123" type="car" route="2" depart="114"/>
  <vehicle id="124" type="car" route="1" depart="114"/>
  <vehicle id="125" type="car" route="2" depart="115"/>
  <vehicle id="126" type="car" route="2" depart="117"/>
  <vehicle id="127" type="car" route="3" depart="117"/>
  <vehicle id="128" type="car" route="1" depart="117"/>
  <vehicle id="129" type="car" route="4" depart="119"/>
  <vehicle id="130" type="car" route="4" depart="120"/>
  <vehicle id="131" type="car" route="2" depart="121"/>
  <vehicle id="132" type="car" route="1" depart="121"/>
  <vehicle id="133" type="car" route="4" depart="122"/>
  <vehicle id="134" type="car" route="1" depart="123"/>
  <vehicle id="135" type="car" route="4" depart="124"/>
  <vehicle id="136" type="car" route="1" depart="126"/>
  <vehicle id="137" type="car" route="2" depart="126"/>
  <vehicle id="138" type="car" route="4" depart="130"/>
  <vehicle id="139" type="car" route="2" depart="130"/>
  <vehicle id="140" type="car" route="4" depart="131"/>
  <vehicle id="141" type="car" route="1" depart="131"/>
  <vehicle id="142" type="car" route="4" depart="132"/>
  <vehicle id="143" type="car" route="4" depart="134"/>
  <vehicle id="144" type="car" route="2" depart="134"/>
  <vehicle id="145" type="car" route="3" depart="135"/>
  <vehicle id="146" type="car" route="2" depart="136"/>
  <vehicle id="147" type="car" route="4" depart="136"/>
  <vehicle id="148" type="car" route="3" depart="137"/>
  <vehicle id="149" type="car" route="3" depart="137"/>
  <vehicle id="150" type="car" route="3" depart="138"/>
  <vehicle id="151" type="car" route="2" depart="138"/>
  <vehicle id="152" type="car" route="4" depart="139"/>
  <vehicle id="153" type="car" route="3" depart="139"/>
  <vehicle id="154" type="car" route="4" depart="139"/>
  <vehicle id="155" type="car" route="3" depart="141"/>
  <vehicle id="156" type="car" route="2" depart="142"/>
  <vehicle id="157" type="car" route="1" depart="143"/>
  <vehicle id="158" type="car" route="2" depart="144"/>
  <vehicle id="159" type="car" route="1" depart="144"/>
  <vehicle id="160" type="car" route="3" depart="144"/>
  <vehicle id="161" type="car" route="1" depart="145"/>
  <vehicle id="162" type="car" route="2" depart="146"/>
  <vehicle id="163" type="car" route="3" depart="146"/>
  <vehicle id="164" type="car" route="4" depart="147"/>
  <vehicle id="165" type="car" route="1" depart="149"/>
  <vehicle id="166" type="car" route="2" depart="151"/>
  <vehicle id="167" type="car" route="4" depart="154"/>
  <vehicle id="168" type="car" route="2" depart="155"/>
  <vehicle id="169" type="car" route="3" depart="157"/>
  <vehicle id="170" type="car" route="4" depart="158"/>
  <vehicle id="171" type="car" route="3" depart="161"/>
  <vehicle id="172" type="car" route="3" depart="162"/>
  <vehicle id="173" type="car" route="3" depart="162"/>
  <vehicle id="174" type="car" route="3" depart="164"/>
  <vehicle id="175" type="car" route="1" depart="165"/>
  <vehicle id="176" type="car" route="1" depart="166"/>
  <vehicle id="177" type="car" route="2" depart="167"/>
  <vehicle id="178" type="car" route="4" depart="170"/>
  <vehicle id="179" type="car" route="4" depart="171"/>
  <vehicle id="180" type="car" route="4" depart="171"/>
  <vehicle id="181" type="car" route="2" depart="172"/>
  <vehicle id="182" type="car" route="2" depart="173"/>
  <vehicle id="183" type="car" route="4" depart="175"/>
  <vehicle id="184" type="car" route="2" depart="176"/>
  <vehicle id="185" type="car" route="2" depart="177"/>
  <vehicle id="186" type="car" route="1" depart="177"/>
  <vehicle id="187" type="car" route="1" depart="178"/>
  <vehicle id="188" type="car" route="3" depart="179"/>
  <vehicle id="189" type="car" route="3" depart="180"/>
  <vehicle id="190" type="car" route="2" depart="180"/>
  <vehicle id="191" type="car" route="3" depart="181"/>
  <vehicle id="192" type="car" route="1" depart="183"/>
  <vehicle id="193" type="car" route="3" depart="184"/>
  <vehicle id="194" type="car" route="4" depart="184"/>
  <vehicle id="195" type="car" route="1" depart="185"/>
  <vehicle id="196" type="car" route="3" depart="185"/>
  <vehicle id="197" type="car" route="1" depart="186"/>
  <vehicle id="198" type="car" route="4" depart="190"/>
  <vehicle id="199" type="car" route="1" depart="191"/>
  <vehicle id="200" type="car" route="2" depart="192"/>
  <vehicle id="201" type="car" route="4" depart="193"/>
  <vehicle id="202" type="car" route="1" depart="193"/>
  <vehicle id="203" type="car" route="1" depart="193"/>
  <vehicle id="204" type="car" route="4" depart="194"/>
  <vehicle id="205" type="car" route="2" depart="194"/>
  <vehicle id="206" type="car" route="4" depart="194"/>
  <vehicle id="207" type="car" route="3" depart="196"/>
  <vehicle id="208" type="car" route="1" depart="196"/>
  <vehicle id="209" type="car" route="1" depart="197"/>
  <vehicle id="210" type="car" route="4" depart="198"/>
  <vehicle id="211" type="car" route="2" depart="200"/>
  <vehicle id="212" type="car" route="3" depart="200"/>
  <vehicle id="213" type="car" route="1" depart="202"/>
  <vehicle id="214" type="car" route="4" depart="202"/>
  <vehicle id="215" type="car" route="4" depart="202"/>
  <vehicle id="216" type="car" route="4" depart="208"/>
  <vehicle id="217" type="car" route="3" depart="208"/>
  <vehicle id="218" type="car" route="2" depart="210"/>
  <vehicle id="219" type="car" route="3" depart="211"/>
  <vehicle id="220" type="car" route="4" depart="213"/>
  <vehicle id="221" type="car" route="2" depart="214"/>
  <vehicle id="222" type="car" route="4" depart="214"/>
  <vehicle id="223" type="car" route="3" depart="215"/>
  <vehicle id="224" type="car" route="2" depart="218"/>
  <vehicle id="225" type="car" route="4" depart="220"/>
  <vehicle id="226" type="car" route="2" depart="221"/>
  <vehicle id="227" type="car" route="4" depart="222"/>
  <vehicle id="228" type="car" route="1" depart="225"/>
  <vehicle id="229" type="car" route="4" depart="225"/>
  <vehicle id="230" type="car" route="2" depart="226"/>
  <vehicle id="231" type="car" route="3" depart="227"/>
  <vehicle id="232" type="car" route="4" depart="227"/>
  <vehicle id="233" type="car" route="3" depart="227"/>
  <vehicle id="234" type="car" route="1" depart="227"/>
  <vehicle id="235" type="car" route="1" depart="227"/>
  <vehicle id="236" type="car" route="1" depart="228"/>
  <vehicle id="237" type="car" route="3" depart="230"/>
  <vehicle id="238" type="car" route="4" depart="231"/>
  <vehicle id="239" type="car" route="3" depart="231"/>
  <vehicle id="240" type="car" route="2" depart="234"/>
  <vehicle id="241" type="car" route="3" depart="235"/>
  <vehicle id="242" type="car" route="1" depart="236"/>
  <vehicle id="243" type="car" route="4" depart="237"/>
  <vehicle id="244" type="car" route="1" depart="239"/>
  <vehicle id="245" type="car" route="1" depart="239"/>
  <vehicle id="246" type="car" route="3" depart="240"/>
  <vehicle id="247" type="car" route="2" depart="242"/>
  <vehicle id="248" type="car" route="1" depart="246"/>
  <vehicle id="249" type="car" route="3" depart="247"/>
  <vehicle id="250" type="car" route="1" depart="247"/>
  <vehicle id="251" type="car" route="3" depart="248"/>
  <vehicle id="252" type="car" route="2" depart="248"/>
  <vehicle id="253" type="car" route="2" depart="248"/>
  <vehicle id="254" type="car" route="4" depart="249"/>
  <vehicle id="255" type="car" route="1" depart="249"/>
  <vehicle id="256" type="car" route="3" depart="250"/>
  <vehicle id="257" type="car" route="1" depart="252"/>
  <vehicle id="258" type="car" route="1" depart="256"/>
  <vehicle id="259" type="car" route="1" depart="256"/>
  <vehicle id="260" type="car" route="1" depart="258"/>
  <vehicle id="261" type="car" route="4" depart="259"/>
  <vehicle id="262" type="car" route="2" depart="259"/>
  <vehicle id="263" type="car" route="4" depart="261"/>
  <vehicle id="264" type="car" route="2" depart="262"/>
  <vehicle id="265" type="car" route="1" depart="264"/>
  <vehicle id="266" type="car" route="4" depart="266"/>
  <vehicle id="267" type="car" route="1" depart="267"/>
  <vehicle id="268" type="car" route="2" depart="267"/>
  <vehicle id="269" type="car" route="1" depart="268"/>
  <vehicle id="270" type="car" route="2" depart="268"/>
  <vehicle id="271" type="car" route="3" depart="271"/>
  <vehicle id="272" type="car" route="2" depart="272"/>
  <vehicle id="273" type="car" route="4" depart="274"/>
  <vehicle id="274" type="car" route="2" depart="275"/>
  <vehicle id="275" type="car" route="4" depart="276"/>
  <vehicle id="276" type="car" route="2" depart="277"/>
  <vehicle id="277" type="car" route="3" depart="278"/>
  <vehicle id="278" type="car" route="4" depart="281"/>
  <vehicle id="279" type="car" route="4" depart="281"/>
  <vehicle id="280" type="car" route="3" depart="284"/>
  <vehicle id="281" type="car" route="2" depart="284"/>
  <vehicle id="282" type="car" route="3" depart="286"/>
  <vehicle id="283" type="car" route="3" depart="287"/>
  <vehicle id="284" type="car" route="4" depart="287"/>
  <vehicle id="285" type="car" route="2" depart="287"/>
  <vehicle id="286" type="car" route="1" depart="288"/>
  <vehicle id="287" type="car" route="1" depart="289"/>
  <vehicle id="288" type="car" route="2" depart="290"/>
  <vehicle id="289" type="car" route="2" depart="292"/>
  <vehicle id="290" type="car" route="2" depart="292"/>
  <vehicle id="291" type="car" route="1" depart="293"/>
  <vehicle id="292" type="car" route="2" depart="294"/>
  <vehicle id="293" type="car" route="4" depart="296"/>
  <vehicle id="294" type="car" route="4" depart="297"/>
  <vehicle id="295" type="car" route="2" depart="298"/>
  <vehicle id="296" type="car" route="3" depart="299"/>
  <vehicle id="297" type="car" route="3" depart="300"/>
  <vehicle id="298" type="car" route="1" depart="300"/>
  <vehicle id="299" type="car" route="4" depart="300"/>
  <vehicle id="300" type="car" route="1" depart="300"/>
  <vehicle id="301" type="car" route="1" depart="301"/>
  <vehicle id="302" type="car" route="4" depart="302"/>
  <vehicle id="303" type="car" route="1" depart="303"/>
  <vehicle id="304" type="car" route="4" depart="304"/>
  <vehicle id="305" type="car" route="2" depart="305"/>
  <vehicle id="306" type="car" route="1" depart="305"/>
  <vehicle id="307" type="car" route="2" depart="305"/>
  <vehicle id="308" type="car" route="4" depart="306"/>
  <vehicle id="309" type="car" route="2" depart="307"/>
  <vehicle id="310" type="car" route="3" depart="307"/>
  <vehicle id="311" type="car" route="2" depart="309"/>
  <vehicle id="312" type="car" route="1" depart="310"/>
  <vehicle id="313" type="car" route="2" depart="312"/>
  <vehicle id="314" type="car" route="2" depart="312"/>
  <vehicle id="315" type="car" route="1" depart="312"/>
  <vehicle id="316" type="car" route="1" depart="313"/>
  <vehicle id="317" type="car" route="1" depart="314"/>
  <vehicle id="318" type="car" route="3" depart="314"/>
  <vehicle id="319" type="car" route="3" depart="315"/>
  <vehicle id="320" type="car" route="3" depart="321"/>
  <vehicle id="321" type="car" route="4" depart="321"/>
  <vehicle id="322" type="car" route="4" depart="321"/>
  <vehicle id="323" type="car" route="4" depart="326"/>
  <vehicle id="324" type="car" route="1" depart="326"/>
  <vehicle id="325" type="car" route="2" depart="326"/>
  <vehicle id="326" type="car" route="3" depart="327"/>
  <vehicle id="327" type="car" route="3" depart="328"/>
  <vehicle id="328" type="car" route="2" depart="329"/>
  <vehicle id="329" type="car" route="2" depart="329"/>
  <vehicle id="330" type="car" route="2" depart="330"/>
  <vehicle id="331" type="car" route="2" depart="331"/>
  <vehicle id="332" type="car" route="3" depart="332"/>
  <vehicle id="333" type="car" route="1" depart="332"/>
  <vehicle id="334" type="car" route="1" depart="332"/>
  <vehicle id="335" type="car" route="4" depart="332"/>
  <vehicle id="336" type="car" route="2" depart="333"/>
  <vehicle id="337" type="car" route="4" depart="334"/>
  <vehicle id="338" type="car" route="2" depart="337"/>
  <vehicle id="339" type="car" route="1" depart="338"/>
  <vehicle id="340" type="car" route="3" depart="338"/>
  <vehicle id="341" type="car" route="1" depart="339"/>
  <vehicle id="342" type="car" route="1" depart="339"/>
  <vehicle id="343" type="car" route="2" depart="340"/>
  <vehicle id="344" type="car" route="3" depart="340"/>
  <vehicle id="345" type="car" route="1" depart="341"/>
  <vehicle id="346" type="car" route="2" depart="341"/>
  <vehicle id="347" type="car" route="3" depart="342"/>
  <vehicle id="348" type="car" route="1" depart="342"/>
  <vehicle id="349" type="car" route="2" depart="344"/>
  <vehicle id="350" type="car" route="1" depart="345"/>
  <vehicle id="351" type="car" route="1" depart="345"/>
  <vehicle id="352" type="car" route="2" depart="347"/>
  <vehicle id="353" type="car" route="2" depart="350"/>
  <vehicle id="354" type="car" route="1" depart="351"/>
  <vehicle id="355" type="car" route="4" depart="352"/>
  <vehicle id="356" type="car" route="3" depart="355"/>
  <vehicle id="357" type="car" route="2" depart="359"/>
  <vehicle id="358" type="car" route="4" depart="362"/>
  <vehicle id="359" type="car" route="2" depart="362"/>
  <vehicle id="360" type="car" route="3" depart="362"/>
  <vehicle id="361" type="car" route="2" depart="365"/>
  <vehicle id="362" type="car" route="4" depart="365"/>
  <vehicle id="363" type="car" route="1" depart="365"/>
  <vehicle id="364" type="car" route="1" depart="367"/>
  <vehicle id="365" type="car" route="2" depart="369"/>
  <vehicle id="366" type="car" route="3" depart="370"/>
  <vehicle id="367" type="car" route="3" depart="371"/>
  <vehicle id="368" type="car" route="3" depart="371"/>
  <vehicle id="369" type="car" route="2" depart="372"/>
  <vehicle id="370" type="car" route="3" depart="373"/>
  <vehicle id="371" type="car" route="2" depart="373"/>
  <vehicle id="372" type="car" route="3" depart="374"/>
  <vehicle id="373" type="car" route="2" depart="377"/>
  <vehicle id="374" type="car" route="3" depart="380"/>
  <vehicle id="375" type="car" route="1" depart="384"/>
  <vehicle id="376" type="car" route="1" depart="384"/>
  <vehicle id="377" type="car" route="1" depart="384"/>
  <vehicle id="378" type="car" route="4" depart="386"/>
  <vehicle id="379" type="car" route="1" depart="387"/>
  <vehicle id="380" type="car" route="2" depart="387"/>
  <vehicle id="381" type="car" route="2" depart="387"/>
  <vehicle id="382" type="car" route="1" depart="387"/>
  <vehicle id="383" type="car" route="2" depart="387"/>
  <vehicle id="384" type="car" route="3" depart="389"/>
  <vehicle id="385" type="car" route="3" depart="390"/>
  <vehicle id="386" type="car" route="3" depart="390"/>
  <vehicle id="387" type="car" route="4" depart="391"/>
  <vehicle id="388" type="car" route="1" depart="392"/>
  <vehicle id="389" type="car" route="2" depart="392"/>
  <vehicle id="390" type="car" route="2" depart="395"/>
  <vehicle id="391" type="car" route="4" depart="395"/>
  <vehicle id="392" type="car" route="4" depart="396"/>
  <vehicle id="393" type="car" route="3" depart="396"/>
  <vehicle id="394" type="car" route="1" depart="397"/>
  <vehicle id="395" type="car" route="3" depart="397"/>
  <vehicle id="396" type="car" route="1" depart="397"/>
  <vehicle id="397" type="car" route="2" depart="397"/>
  <vehicle id="398" type="car" route="1" depart="398"/>
  <vehicle id="399" type="car" route="1" depart="400"/>
  -->
</routes>
